dss/export/decsa/Load.dss
New Load.carga_idseta_2943 phases=3 bus1=x_2943.1.2.3.0 kv=0.38 kw=132.69670473340852 pf=0.9 status=variable model=1 CVRwatts=0.8 CVRvars=3.0 class=1 daily=334 conn=wye
New Load.carga_idseta_3012 phases=3 bus1=x_3012.1.2.3.0 kv=0.38 kw=62.35991182416547 pf=0.9 status=variable model=1 CVRwatts=0.8 CVRvars=3.0 class=1 daily=335 conn=wye
New Load.carga_idseta_2982 phases=3 bus1=x_2982.1.2.3.0 kv=0.38 kw=9.498742880978789 pf=0.9 status=variable model=1 CVRwatts=0.8 CVRvars=3.0 class=1 daily=333 conn=wye
New Load.carga_idseta_2986 phases=3 bus1=x_2986.1.2.3.0 kv=0.38 kw=51.486539168523336 pf=0.9 status=variable model=1 CVRwatts=0.8 CVRvars=3.0 class=1 daily=333 conn=wye
New Load.carga_idseta_205 phases=3 bus1=x_205.1.2.3.0 kv=0.38 kw=2.781197589840519 pf=0.9 status=variable model=1 CVRwatts=0.8 CVRvars=3.0 class=1 daily=332 conn=wye
New Load.carga_idseta_1354 phases=3 bus1=x_1354.1.2.3.0 kv=0.38 kw=4.786113288650431 pf=0.9 status=variable model=1 CVRwatts=0.8 CVRvars=3.0 class=1 daily=332 conn=wye
New Load.carga_idseta_2073 phases=3 bus1=x_2073.1.2.3.0 kv=0.38 kw=4.255730666262581 pf=0.9 status=variable model=1 CVRwatts=0.8 CVRvars=3.0 class=1 daily=332 conn=wye
New Load.carga_idseta_828 phases=3 bus1=x_828.1.2.3.0 kv=0.38 kw=10.68962354930228 pf=0.9 status=variable model=1 CVRwatts=0.8 CVRvars=3.0 class=1 daily=333 conn=wye
New Load.carga_idseta_115 phases=3 bus1=x_115.1.2.3.0 kv=0.38 kw=20.67168545837579 pf=0.9 status=variable model=1 CVRwatts=0.8 CVRvars=3.0 class=1 daily=333 conn=wye
New Load.carga_idseta_1245 phases=3 bus1=x_1245.1.2.3.0 kv=0.38 kw=17.114619765462436 pf=0.9 status=variable model=1 CVRwatts=0.8 CVRvars=3.0 class=1 daily=332 conn=wye
New Load.carga_idseta_848 phases=3 bus1=x_848.1.2.3.0 kv=0.38 kw=12.444086225032116 pf=0.9 status=variable model=1 CVRwatts=0.8 CVRvars=3.0 class=1 daily=332 conn=wye
New Load.carga_idseta_1945 phases=3 bus1=x_1945.1.2.3.0 kv=0.38 kw=61.09913506033859 pf=0.9 status=variable model=1 CVRwatts=0.8 CVRvars=3.0 class=1 daily=332 conn=wye
New Load.carga_idseta_2970 phases=3 bus1=x_2970.1.2.3.0 kv=0.38 kw=5.056566065994674 pf=0.9 status=variable model=1 CVRwatts=0.8 CVRvars=3.0 class=1 daily=332 conn=wye
New Load.carga_idseta_2971 phases=3 bus1=x_2971.1.2.3.0 kv=0.38 kw=44.16582024320353 pf=0.9 status=variable model=1 CVRwatts=0.8 CVRvars=3.0 class=1 daily=332 conn=wye
New Load.carga_idseta_3002 phases=3 bus1=x_3002.1.2.3.0 kv=0.38 kw=27.99331560018915 pf=0.9 status=variable model=1 CVRwatts=0.8 CVRvars=3.0 class=1 daily=333 conn=wye
New Load.carga_idseta_1067 phases=3 bus1=x_1067.1.2.3.0 kv=0.38 kw=2.649546203564333 pf=0.9 status=variable model=1 CVRwatts=0.8 CVRvars=3.0 class=1 daily=333 conn=wye
New Load.carga_idseta_821 phases=3 bus1=x_821.1.2.3.0 kv=0.38 kw=36.12635565988946 pf=0.9 status=variable model=1 CVRwatts=0.8 CVRvars=3.0 class=1 daily=333 conn=wye
New Load.carga_idseta_210 phases=3 bus1=x_210.1.2.3.0 kv=0.38 kw=0.8098859389695412 pf=0.9 status=variable model=1 CVRwatts=0.8 CVRvars=3.0 class=1 daily=333 conn=wye
New Load.carga_idseta_784 phases=3 bus1=x_784.1.2.3.0 kv=0.38 kw=83.89286229100081 pf=0.9 status=variable model=1 CVRwatts=0.8 CVRvars=3.0 class=1 daily=333 conn=wye
New Load.carga_idseta_2960 phases=3 bus1=x_2960.1.2.3.0 kv=0.38 kw=1.12992151162686 pf=0.9 status=variable model=1 CVRwatts=0.8 CVRvars=3.0 class=1 daily=333 conn=wye
New Load.carga_idseta_646 phases=3 bus1=x_646.1.2.3.0 kv=0.38 kw=0.587820439574667 pf=0.9 status=variable model=1 CVRwatts=0.8 CVRvars=3.0 class=1 daily=333 conn=wye
New Load.carga_idseta_2959 phases=3 bus1=x_2959.1.2.3.0 kv=0.38 kw=17.003250492882035 pf=0.9 status=variable model=1 CVRwatts=0.8 CVRvars=3.0 class=1 daily=333 conn=wye
New Load.carga_idseta_2956 phases=3 bus1=x_2956.1.2.3.0 kv=0.38 kw=1.8810254066389347 pf=0.9 status=variable model=1 CVRwatts=0.8 CVRvars=3.0 class=1 daily=333 conn=wye
New Load.carga_idseta_2088 phases=3 bus1=x_2088.1.2.3.0 kv=0.38 kw=11.4199691524947 pf=0.9 status=variable model=1 CVRwatts=0.8 CVRvars=3.0 class=1 daily=332 conn=wye
New Load.carga_idseta_560 phases=3 bus1=x_560.1.2.3.0 kv=0.38 kw=37.89917446499789 pf=0.9 status=variable model=1 CVRwatts=0.8 CVRvars=3.0 class=1 daily=332 conn=wye
New Load.carga_idseta_1638 phases=3 bus1=x_1638.1.2.3.0 kv=0.38 kw=7.887560701585748 pf=0.9 status=variable model=1 CVRwatts=0.8 CVRvars=3.0 class=1 daily=332 conn=wye
New Load.carga_idseta_2396 phases=3 bus1=x_2396.1.2.3.0 kv=0.38 kw=1.098295119902562 pf=0.9 status=variable model=1 CVRwatts=0.8 CVRvars=3.0 class=1 daily=332 conn=wye
New Load.carga_idseta_1951 phases=3 bus1=x_1951.1.2.3.0 kv=0.38 kw=1.248548792588708 pf=0.9 status=variable model=1 CVRwatts=0.8 CVRvars=3.0 class=1 daily=332 conn=wye
New Load.carga_idseta_570 phases=3 bus1=x_570.1.2.3.0 kv=0.38 kw=22.134556826672927 pf=0.9 status=variable model=1 CVRwatts=0.8 CVRvars=3.0 class=1 daily=332 conn=wye
New Load.carga_idseta_2940 phases=3 bus1=x_2940.1.2.3.0 kv=0.38 kw=83.52208625121321 pf=0.9 status=variable model=1 CVRwatts=0.8 CVRvars=3.0 class=1 daily=335 conn=wye
New Load.carga_idseta_1594 phases=3 bus1=x_1594.1.2.3.0 kv=0.38 kw=125.218131857994 pf=0.9 status=variable model=1 CVRwatts=0.8 CVRvars=3.0 class=1 daily=335 conn=wye
New Load.carga_idseta_1595 phases=3 bus1=x_1595.1.2.3.0 kv=0.38 kw=160.4108013893683 pf=0.9 status=variable model=1 CVRwatts=0.8 CVRvars=3.0 class=1 daily=335 conn=wye
New Load.carga_idseta_2937 phases=3 bus1=x_2937.1.2.3.0 kv=0.38 kw=149.92782596645444 pf=0.9 status=variable model=1 CVRwatts=0.8 CVRvars=3.0 class=1 daily=332 conn=wye
New Load.carga_idseta_2947 phases=3 bus1=x_2947.1.2.3.0 kv=0.38 kw=8.373647337549606 pf=0.9 status=variable model=1 CVRwatts=0.8 CVRvars=3.0 class=1 daily=332 conn=wye
New Load.carga_idseta_593 phases=3 bus1=x_593.1.2.3.0 kv=0.38 kw=11.5081394413525 pf=0.9 status=variable model=1 CVRwatts=0.8 CVRvars=3.0 class=1 daily=332 conn=wye
New Load.carga_idseta_2948 phases=3 bus1=x_2948.1.2.3.0 kv=0.38 kw=6.231339327754325 pf=0.9 status=variable model=1 CVRwatts=0.8 CVRvars=3.0 class=1 daily=332 conn=wye
New Load.carga_idseta_594 phases=3 bus1=x_594.1.2.3.0 kv=0.38 kw=12.769741270182982 pf=0.9 status=variable model=1 CVRwatts=0.8 CVRvars=3.0 class=1 daily=332 conn=wye
New Load.carga_idseta_859 phases=3 bus1=x_859.1.2.3.0 kv=0.38 kw=6.484273052051606 pf=0.9 status=variable model=1 CVRwatts=0.8 CVRvars=3.0 class=1 daily=332 conn=wye
New Load.carga_idseta_2074 phases=3 bus1=x_2074.1.2.3.0 kv=0.38 kw=0.918121051367063 pf=0.9 status=variable model=1 CVRwatts=0.8 CVRvars=3.0 class=1 daily=332 conn=wye
New Load.carga_idseta_596 phases=3 bus1=x_596.1.2.3.0 kv=0.38 kw=1.004374594814908 pf=0.9 status=variable model=1 CVRwatts=0.8 CVRvars=3.0 class=1 daily=332 conn=wye
New Load.carga_idseta_1874 phases=3 bus1=x_1874.1.2.3.0 kv=0.38 kw=31.03091980497057 pf=0.9 status=variable model=1 CVRwatts=0.8 CVRvars=3.0 class=1 daily=332 conn=wye
New Load.carga_idseta_956 phases=3 bus1=x_956.1.2.3.0 kv=0.38 kw=10.10180310972761 pf=0.9 status=variable model=1 CVRwatts=0.8 CVRvars=3.0 class=1 daily=333 conn=wye
New Load.carga_idseta_2258 phases=3 bus1=x_2258.1.2.3.0 kv=0.38 kw=9.04186312236711 pf=0.9 status=variable model=1 CVRwatts=0.8 CVRvars=3.0 class=1 daily=332 conn=wye
New Load.carga_idseta_2286 phases=3 bus1=x_2286.1.2.3.0 kv=0.38 kw=24.258329908353964 pf=0.9 status=variable model=1 CVRwatts=0.8 CVRvars=3.0 class=1 daily=332 conn=wye
New Load.carga_idseta_582 phases=3 bus1=x_582.1.2.3.0 kv=0.38 kw=5.817322319204669 pf=0.9 status=variable model=1 CVRwatts=0.8 CVRvars=3.0 class=1 daily=332 conn=wye
New Load.carga_idseta_2962 phases=3 bus1=x_2962.1.2.3.0 kv=0.38 kw=0.7619894587079018 pf=0.9 status=variable model=1 CVRwatts=0.8 CVRvars=3.0 class=1 daily=333 conn=wye
New Load.carga_idseta_957 phases=3 bus1=x_957.1.2.3.0 kv=0.38 kw=15.43790643342209 pf=0.9 status=variable model=1 CVRwatts=0.8 CVRvars=3.0 class=1 daily=333 conn=wye
New Load.carga_idseta_958 phases=3 bus1=x_958.1.2.3.0 kv=0.38 kw=11.815713342508204 pf=0.9 status=variable model=1 CVRwatts=0.8 CVRvars=3.0 class=1 daily=333 conn=wye
New Load.carga_idseta_2949 phases=3 bus1=x_2949.1.2.3.0 kv=0.38 kw=0.16981479365490382 pf=0.9 status=variable model=1 CVRwatts=0.8 CVRvars=3.0 class=1 daily=333 conn=wye
New Load.carga_idseta_2966 phases=3 bus1=x_2966.1.2.3.0 kv=0.38 kw=0.24819085226485943 pf=0.9 status=variable model=1 CVRwatts=0.8 CVRvars=3.0 class=1 daily=333 conn=wye
New Load.carga_idseta_2968 phases=3 bus1=x_2968.1.2.3.0 kv=0.38 kw=9.09268958399704 pf=0.9 status=variable model=1 CVRwatts=0.8 CVRvars=3.0 class=1 daily=333 conn=wye
New Load.carga_idseta_520 phases=3 bus1=x_520.1.2.3.0 kv=0.38 kw=60.04594498706181 pf=0.9 status=variable model=1 CVRwatts=0.8 CVRvars=3.0 class=1 daily=333 conn=wye
New Load.carga_idseta_644 phases=3 bus1=x_644.1.2.3.0 kv=0.38 kw=4.145222655370986 pf=0.9 status=variable model=1 CVRwatts=0.8 CVRvars=3.0 class=1 daily=333 conn=wye
New Load.carga_idseta_1046 phases=3 bus1=x_1046.1.2.3.0 kv=0.38 kw=4.490033625175128 pf=0.9 status=variable model=1 CVRwatts=0.8 CVRvars=3.0 class=1 daily=332 conn=wye
New Load.carga_idseta_2992 phases=3 bus1=x_2992.1.2.3.0 kv=0.38 kw=20.18566759619591 pf=0.9 status=variable model=1 CVRwatts=0.8 CVRvars=3.0 class=1 daily=332 conn=wye
New Load.carga_idseta_524 phases=3 bus1=x_524.1.2.3.0 kv=0.38 kw=13.823893743294343 pf=0.9 status=variable model=1 CVRwatts=0.8 CVRvars=3.0 class=1 daily=332 conn=wye
New Load.carga_idseta_1106 phases=3 bus1=x_1106.1.2.3.0 kv=0.38 kw=16.07242778370917 pf=0.9 status=variable model=1 CVRwatts=0.8 CVRvars=3.0 class=1 daily=332 conn=wye
New Load.carga_idseta_2950 phases=3 bus1=x_2950.1.2.3.0 kv=0.38 kw=8.471880539809652 pf=0.9 status=variable model=1 CVRwatts=0.8 CVRvars=3.0 class=1 daily=332 conn=wye
New Load.carga_idseta_2643 phases=3 bus1=x_2643.1.2.3.0 kv=0.38 kw=25.049524078674 pf=0.9 status=variable model=1 CVRwatts=0.8 CVRvars=3.0 class=1 daily=332 conn=wye
New Load.carga_idseta_2967 phases=3 bus1=x_2967.1.2.3.0 kv=0.38 kw=3.1472959631413726 pf=0.9 status=variable model=1 CVRwatts=0.8 CVRvars=3.0 class=1 daily=332 conn=wye
New Load.carga_idseta_2973 phases=3 bus1=x_2973.1.2.3.0 kv=0.38 kw=11.993076030070382 pf=0.9 status=variable model=1 CVRwatts=0.8 CVRvars=3.0 class=1 daily=332 conn=wye
New Load.carga_idseta_2963 phases=3 bus1=x_2963.1.2.3.0 kv=0.38 kw=0.6640193854454571 pf=0.9 status=variable model=1 CVRwatts=0.8 CVRvars=3.0 class=1 daily=333 conn=wye
New Load.carga_idseta_2989 phases=3 bus1=x_2989.1.2.3.0 kv=0.38 kw=4.186587797415129 pf=0.9 status=variable model=1 CVRwatts=0.8 CVRvars=3.0 class=1 daily=333 conn=wye
New Load.carga_idseta_968 phases=3 bus1=x_968.1.2.3.0 kv=0.38 kw=58.64270874216012 pf=0.9 status=variable model=1 CVRwatts=0.8 CVRvars=3.0 class=1 daily=333 conn=wye
New Load.carga_idseta_1002 phases=3 bus1=x_1002.1.2.3.0 kv=0.38 kw=33.04660761298441 pf=0.9 status=variable model=1 CVRwatts=0.8 CVRvars=3.0 class=1 daily=332 conn=wye
New Load.carga_idseta_2957 phases=3 bus1=x_2957.1.2.3.0 kv=0.38 kw=1.2363007894191145 pf=0.9 status=variable model=1 CVRwatts=0.8 CVRvars=3.0 class=1 daily=332 conn=wye
New Load.carga_idseta_2988 phases=3 bus1=x_2988.1.2.3.0 kv=0.38 kw=0.45810215297855533 pf=0.9 status=variable model=1 CVRwatts=0.8 CVRvars=3.0 class=1 daily=332 conn=wye
New Load.carga_idseta_833 phases=3 bus1=x_833.1.2.3.0 kv=0.38 kw=15.866166810144223 pf=0.9 status=variable model=1 CVRwatts=0.8 CVRvars=3.0 class=1 daily=332 conn=wye
New Load.carga_idseta_523 phases=3 bus1=x_523.1.2.3.0 kv=0.38 kw=8.399178386410167 pf=0.9 status=variable model=1 CVRwatts=0.8 CVRvars=3.0 class=1 daily=332 conn=wye
New Load.carga_idseta_1356 phases=3 bus1=x_1356.1.2.3.0 kv=0.38 kw=2.3208021799503524 pf=0.9 status=variable model=1 CVRwatts=0.8 CVRvars=3.0 class=1 daily=333 conn=wye
New Load.carga_idseta_1382 phases=3 bus1=x_1382.1.2.3.0 kv=0.38 kw=2.225009219427073 pf=0.9 status=variable model=1 CVRwatts=0.8 CVRvars=3.0 class=1 daily=333 conn=wye
New Load.carga_idseta_635 phases=3 bus1=x_635.1.2.3.0 kv=0.38 kw=0.3565146462510934 pf=0.9 status=variable model=1 CVRwatts=0.8 CVRvars=3.0 class=1 daily=332 conn=wye
New Load.carga_idseta_1355 phases=3 bus1=x_1355.1.2.3.0 kv=0.38 kw=57.24743515903982 pf=0.9 status=variable model=1 CVRwatts=0.8 CVRvars=3.0 class=1 daily=332 conn=wye
New Load.carga_idseta_1243 phases=3 bus1=x_1243.1.2.3.0 kv=0.38 kw=2.7907813168902798 pf=0.9 status=variable model=1 CVRwatts=0.8 CVRvars=3.0 class=1 daily=332 conn=wye
New Load.carga_idseta_1543 phases=3 bus1=x_1543.1.2.3.0 kv=0.38 kw=36.32621651177477 pf=0.9 status=variable model=1 CVRwatts=0.8 CVRvars=3.0 class=1 daily=332 conn=wye
New Load.carga_idseta_2 phases=3 bus1=x_2.1.2.3.0 kv=0.38 kw=7.343401269205008 pf=0.9 status=variable model=1 CVRwatts=0.8 CVRvars=3.0 class=1 daily=333 conn=wye
New Load.carga_idseta_2978 phases=3 bus1=x_2978.1.2.3.0 kv=0.38 kw=3.1002085405715776 pf=0.9 status=variable model=1 CVRwatts=0.8 CVRvars=3.0 class=1 daily=333 conn=wye
New Load.carga_idseta_2724 phases=3 bus1=x_2724.1.2.3.0 kv=0.38 kw=0.7467496695337437 pf=0.9 status=variable model=1 CVRwatts=0.8 CVRvars=3.0 class=1 daily=333 conn=wye
New Load.carga_idseta_2683 phases=3 bus1=x_2683.1.2.3.0 kv=0.38 kw=65.07158992246436 pf=0.9 status=variable model=1 CVRwatts=0.8 CVRvars=3.0 class=1 daily=332 conn=wye
New Load.carga_idseta_1352 phases=3 bus1=x_1352.1.2.3.0 kv=0.38 kw=133.29312091673583 pf=0.9 status=variable model=1 CVRwatts=0.8 CVRvars=3.0 class=1 daily=332 conn=wye
New Load.carga_idseta_1374 phases=3 bus1=x_1374.1.2.3.0 kv=0.38 kw=13.25046101899897 pf=0.9 status=variable model=1 CVRwatts=0.8 CVRvars=3.0 class=1 daily=332 conn=wye
New Load.carga_idseta_2977 phases=3 bus1=x_2977.1.2.3.0 kv=0.38 kw=6.244756545623991 pf=0.9 status=variable model=1 CVRwatts=0.8 CVRvars=3.0 class=1 daily=332 conn=wye
New Load.carga_idseta_2660 phases=3 bus1=x_2660.1.2.3.0 kv=0.38 kw=0.5347719693766401 pf=0.9 status=variable model=1 CVRwatts=0.8 CVRvars=3.0 class=1 daily=332 conn=wye
New Load.carga_idseta_2975 phases=3 bus1=x_2975.1.2.3.0 kv=0.38 kw=74.8364110785572 pf=0.9 status=variable model=1 CVRwatts=0.8 CVRvars=3.0 class=1 daily=332 conn=wye
New Load.carga_idseta_1353 phases=3 bus1=x_1353.1.2.3.0 kv=0.38 kw=21.34526023430874 pf=0.9 status=variable model=1 CVRwatts=0.8 CVRvars=3.0 class=1 daily=332 conn=wye
New Load.carga_idseta_1318 phases=3 bus1=x_1318.1.2.3.0 kv=0.38 kw=0.3143462472321468 pf=0.9 status=variable model=1 CVRwatts=0.8 CVRvars=3.0 class=1 daily=332 conn=wye
New Load.carga_idseta_540 phases=3 bus1=x_540.1.2.3.0 kv=0.38 kw=3.820045671344429 pf=0.9 status=variable model=1 CVRwatts=0.8 CVRvars=3.0 class=1 daily=335 conn=wye
New Load.carga_idseta_541 phases=3 bus1=x_541.1.2.3.0 kv=0.38 kw=6.28193423289606 pf=0.9 status=variable model=1 CVRwatts=0.8 CVRvars=3.0 class=1 daily=335 conn=wye
New Load.carga_idseta_2395 phases=3 bus1=x_2395.1.2.3.0 kv=0.38 kw=2.965205149195921 pf=0.9 status=variable model=1 CVRwatts=0.8 CVRvars=3.0 class=1 daily=332 conn=wye
New Load.carga_idseta_2228 phases=3 bus1=x_2228.1.2.3.0 kv=0.38 kw=0.5769403683955866 pf=0.9 status=variable model=1 CVRwatts=0.8 CVRvars=3.0 class=1 daily=332 conn=wye
New Load.carga_idseta_651 phases=3 bus1=x_651.1.2.3.0 kv=0.38 kw=2.0144994258596727 pf=0.9 status=variable model=1 CVRwatts=0.8 CVRvars=3.0 class=1 daily=332 conn=wye
New Load.carga_idseta_31 phases=3 bus1=x_31.1.2.3.0 kv=0.38 kw=0.9609602191930162 pf=0.9 status=variable model=1 CVRwatts=0.8 CVRvars=3.0 class=1 daily=335 conn=wye
New Load.carga_idseta_27 phases=3 bus1=x_27.1.2.3.0 kv=0.38 kw=6.492796360993271 pf=0.9 status=variable model=1 CVRwatts=0.8 CVRvars=3.0 class=1 daily=335 conn=wye
New Load.carga_idseta_805 phases=3 bus1=x_805.1.2.3.0 kv=0.38 kw=4.828281687669378 pf=0.9 status=variable model=1 CVRwatts=0.8 CVRvars=3.0 class=1 daily=332 conn=wye
New Load.carga_idseta_3020 phases=3 bus1=x_3020.1.2.3.0 kv=0.38 kw=48.92162978692261 pf=0.9 status=variable model=1 CVRwatts=0.8 CVRvars=3.0 class=1 daily=332 conn=wye
New Load.carga_idseta_2543 phases=3 bus1=x_2543.1.2.3.0 kv=0.38 kw=1.6886527061678134 pf=0.9 status=variable model=1 CVRwatts=0.8 CVRvars=3.0 class=1 daily=332 conn=wye
New Load.carga_idseta_1105 phases=3 bus1=x_1105.1.2.3.0 kv=0.38 kw=0.8797861431680208 pf=0.9 status=variable model=1 CVRwatts=0.8 CVRvars=3.0 class=1 daily=332 conn=wye
New Load.carga_idseta_656 phases=3 bus1=x_656.1.2.3.0 kv=0.38 kw=14.697603803512816 pf=0.9 status=variable model=1 CVRwatts=0.8 CVRvars=3.0 class=1 daily=332 conn=wye
New Load.carga_idseta_204 phases=3 bus1=x_204.1.2.3.0 kv=0.38 kw=6.5706032653158495 pf=0.9 status=variable model=1 CVRwatts=0.8 CVRvars=3.0 class=1 daily=332 conn=wye
New Load.carga_idseta_3001 phases=3 bus1=x_3001.1.2.3.0 kv=0.38 kw=31.850558477174296 pf=0.9 status=variable model=1 CVRwatts=0.8 CVRvars=3.0 class=1 daily=332 conn=wye
New Load.carga_idseta_3014 phases=3 bus1=x_3014.1.2.3.0 kv=0.38 kw=5.555265267144389 pf=0.9 status=variable model=1 CVRwatts=0.8 CVRvars=3.0 class=1 daily=335 conn=wye
New Load.carga_idseta_2898 phases=3 bus1=x_2898.1.2.3.0 kv=0.38 kw=15.635582337326984 pf=0.9 status=variable model=1 CVRwatts=0.8 CVRvars=3.0 class=1 daily=332 conn=wye
New Load.carga_idseta_2944 phases=3 bus1=x_2944.1.2.3.0 kv=0.38 kw=1.3252099022776072 pf=0.9 status=variable model=1 CVRwatts=0.8 CVRvars=3.0 class=1 daily=335 conn=wye
New Load.carga_idseta_2377 phases=3 bus1=x_2377.1.2.3.0 kv=0.38 kw=10.019072825639329 pf=0.9 status=variable model=1 CVRwatts=0.8 CVRvars=3.0 class=1 daily=333 conn=wye
New Load.carga_idseta_2583 phases=3 bus1=x_2583.1.2.3.0 kv=0.38 kw=0.7924690370562179 pf=0.9 status=variable model=1 CVRwatts=0.8 CVRvars=3.0 class=1 daily=333 conn=wye
New Load.carga_idseta_2549 phases=3 bus1=x_2549.1.2.3.0 kv=0.38 kw=0.22206549939487424 pf=0.9 status=variable model=1 CVRwatts=0.8 CVRvars=3.0 class=1 daily=333 conn=wye
New Load.carga_idseta_3010 phases=3 bus1=x_3010.1.2.3.0 kv=0.38 kw=4.19529624837179 pf=0.9 status=variable model=1 CVRwatts=0.8 CVRvars=3.0 class=1 daily=333 conn=wye
New Load.carga_idseta_1228 phases=3 bus1=x_1228.1.2.3.0 kv=0.38 kw=0.6836134000979461 pf=0.9 status=variable model=1 CVRwatts=0.8 CVRvars=3.0 class=1 daily=333 conn=wye
New Load.carga_idseta_104 phases=3 bus1=x_104.1.2.3.0 kv=0.38 kw=67.69078928613166 pf=0.9 status=variable model=1 CVRwatts=0.8 CVRvars=3.0 class=1 daily=333 conn=wye
New Load.carga_idseta_11 phases=3 bus1=x_11.1.2.3.0 kv=0.38 kw=6.971114990807719 pf=0.9 status=variable model=1 CVRwatts=0.8 CVRvars=3.0 class=1 daily=333 conn=wye
New Load.carga_idseta_42 phases=3 bus1=x_42.1.2.3.0 kv=0.38 kw=2.5680517857672416 pf=0.9 status=variable model=1 CVRwatts=0.8 CVRvars=3.0 class=1 daily=335 conn=wye
New Load.carga_idseta_2997 phases=3 bus1=x_2997.1.2.3.0 kv=0.38 kw=3.954708230060676 pf=0.9 status=variable model=1 CVRwatts=0.8 CVRvars=3.0 class=1 daily=335 conn=wye
New Load.carga_idseta_2930 phases=3 bus1=x_2930.1.2.3.0 kv=0.38 kw=59.561450318087935 pf=0.9 status=variable model=1 CVRwatts=0.8 CVRvars=3.0 class=1 daily=333 conn=wye
New Load.carga_idseta_1759 phases=3 bus1=x_1759.1.2.3.0 kv=0.38 kw=11.208843166465844 pf=0.9 status=variable model=1 CVRwatts=0.8 CVRvars=3.0 class=1 daily=333 conn=wye
New Load.carga_idseta_5006 phases=3 bus1=x_5006.1.2.3.0 kv=0.38 kw=19.51563859387895 pf=0.9 status=variable model=1 CVRwatts=0.8 CVRvars=3.0 class=1 daily=333 conn=wye
New Load.carga_idseta_5000 phases=3 bus1=x_5000.1.2.3.0 kv=0.38 kw=0.11320986243660254 pf=0.9 status=variable model=1 CVRwatts=0.8 CVRvars=3.0 class=1 daily=333 conn=wye
New Load.carga_idseta_5026 phases=3 bus1=x_5026.1.2.3.0 kv=0.38 kw=0.2873788815698372 pf=0.9 status=variable model=1 CVRwatts=0.8 CVRvars=3.0 class=1 daily=333 conn=wye
New Load.carga_idseta_5007 phases=3 bus1=x_5007.1.2.3.0 kv=0.38 kw=0.28955599430900264 pf=0.9 status=variable model=1 CVRwatts=0.8 CVRvars=3.0 class=1 daily=333 conn=wye
New Load.carga_idseta_5008 phases=3 bus1=x_5008.1.2.3.0 kv=0.38 kw=0.6291855816188104 pf=0.9 status=variable model=1 CVRwatts=0.8 CVRvars=3.0 class=1 daily=333 conn=wye
New Load.carga_idseta_5011 phases=3 bus1=x_5011.1.2.3.0 kv=0.38 kw=1.1125046097135365 pf=0.9 status=variable model=1 CVRwatts=0.8 CVRvars=3.0 class=1 daily=333 conn=wye
New Load.carga_idseta_5009 phases=3 bus1=x_5009.1.2.3.0 kv=0.38 kw=17.174088529524347 pf=0.9 status=variable model=1 CVRwatts=0.8 CVRvars=3.0 class=1 daily=333 conn=wye
New Load.carga_idseta_2644 phases=3 bus1=x_2644.1.2.3.0 kv=0.38 kw=1.3498098982825688 pf=0.9 status=variable model=1 CVRwatts=0.8 CVRvars=3.0 class=1 daily=333 conn=wye
New Load.carga_idseta_2922 phases=3 bus1=x_2922.1.2.3.0 kv=0.38 kw=0.6139457924446523 pf=0.9 status=variable model=1 CVRwatts=0.8 CVRvars=3.0 class=1 daily=333 conn=wye
New Load.carga_idseta_1973 phases=3 bus1=x_1973.1.2.3.0 kv=0.38 kw=26.891696554171435 pf=0.9 status=variable model=1 CVRwatts=0.8 CVRvars=3.0 class=1 daily=333 conn=wye
New Load.carga_idseta_2951 phases=3 bus1=x_2951.1.2.3.0 kv=0.38 kw=9.189440474125554 pf=0.9 status=variable model=1 CVRwatts=0.8 CVRvars=3.0 class=1 daily=333 conn=wye
New Load.carga_idseta_2993 phases=3 bus1=x_2993.1.2.3.0 kv=0.38 kw=2.5581074685193848 pf=0.9 status=variable model=1 CVRwatts=0.8 CVRvars=3.0 class=1 daily=333 conn=wye
New Load.carga_idseta_1357 phases=3 bus1=x_1357.1.2.3.0 kv=0.38 kw=1.4238317314141935 pf=0.9 status=variable model=1 CVRwatts=0.8 CVRvars=3.0 class=1 daily=333 conn=wye
New Load.carga_idseta_2548 phases=3 bus1=x_2548.1.2.3.0 kv=0.38 kw=2.6430148653468364 pf=0.9 status=variable model=1 CVRwatts=0.8 CVRvars=3.0 class=1 daily=333 conn=wye
New Load.carga_idseta_1326 phases=3 bus1=x_1326.1.2.3.0 kv=0.38 kw=0.9165644631886476 pf=0.9 status=variable model=1 CVRwatts=0.8 CVRvars=3.0 class=1 daily=333 conn=wye
New Load.carga_idseta_1488 phases=3 bus1=x_1488.1.2.3.0 kv=0.38 kw=33.64364160552737 pf=0.9 status=variable model=1 CVRwatts=0.8 CVRvars=3.0 class=1 daily=333 conn=wye
New Load.carga_idseta_1231 phases=3 bus1=x_1231.1.2.3.0 kv=0.38 kw=5.474991588987221 pf=0.9 status=variable model=1 CVRwatts=0.8 CVRvars=3.0 class=1 daily=332 conn=wye
New Load.carga_idseta_401 phases=3 bus1=x_401.1.2.3.0 kv=0.38 kw=1.7862342149884751 pf=0.9 status=variable model=1 CVRwatts=0.8 CVRvars=3.0 class=1 daily=332 conn=wye
New Load.carga_idseta_1236 phases=3 bus1=x_1236.1.2.3.0 kv=0.38 kw=14.024826164619624 pf=0.9 status=variable model=1 CVRwatts=0.8 CVRvars=3.0 class=1 daily=332 conn=wye
New Load.carga_idseta_967 phases=3 bus1=x_967.1.2.3.0 kv=0.38 kw=65.43086468210578 pf=0.9 status=variable model=1 CVRwatts=0.8 CVRvars=3.0 class=1 daily=332 conn=wye
New Load.carga_idseta_2998 phases=3 bus1=x_2998.1.2.3.0 kv=0.38 kw=4.43429466865372 pf=0.9 status=variable model=1 CVRwatts=0.8 CVRvars=3.0 class=1 daily=332 conn=wye
New Load.carga_idseta_1000 phases=3 bus1=x_1000.1.2.3.0 kv=0.38 kw=1.571731236160734 pf=0.9 status=variable model=1 CVRwatts=0.8 CVRvars=3.0 class=1 daily=332 conn=wye
New Load.carga_idseta_2748 phases=3 bus1=x_2748.1.2.3.0 kv=0.38 kw=25.0424768801366 pf=0.9 status=variable model=1 CVRwatts=0.8 CVRvars=3.0 class=1 daily=335 conn=wye
New Load.carga_idseta_604 phases=3 bus1=x_604.1.2.3.0 kv=0.38 kw=48.3639563757173 pf=0.9 status=variable model=1 CVRwatts=0.8 CVRvars=3.0 class=1 daily=335 conn=wye
New Load.carga_idseta_835 phases=3 bus1=x_835.1.2.3.0 kv=0.38 kw=54.418481660741854 pf=0.9 status=variable model=1 CVRwatts=0.8 CVRvars=3.0 class=1 daily=335 conn=wye
New Load.carga_idseta_659 phases=3 bus1=x_659.1.2.3.0 kv=0.38 kw=7.127579225785914 pf=0.9 status=variable model=1 CVRwatts=0.8 CVRvars=3.0 class=1 daily=335 conn=wye
New Load.carga_idseta_47 phases=3 bus1=x_47.1.2.3.0 kv=0.38 kw=51.31080412447034 pf=0.9 status=variable model=1 CVRwatts=0.8 CVRvars=3.0 class=1 daily=334 conn=wye
New Load.carga_idseta_39 phases=3 bus1=x_39.1.2.3.0 kv=0.38 kw=10.740789649951656 pf=0.9 status=variable model=1 CVRwatts=0.8 CVRvars=3.0 class=1 daily=335 conn=wye
New Load.carga_idseta_2955 phases=3 bus1=x_2955.1.2.3.0 kv=0.38 kw=86.70569195000257 pf=0.9 status=variable model=1 CVRwatts=0.8 CVRvars=3.0 class=1 daily=333 conn=wye
New Load.carga_idseta_609 phases=3 bus1=x_609.1.2.3.0 kv=0.38 kw=14.043683435260546 pf=0.9 status=variable model=1 CVRwatts=0.8 CVRvars=3.0 class=1 daily=333 conn=wye
New Load.carga_idseta_2928 phases=3 bus1=x_2928.1.2.3.0 kv=0.38 kw=70.03553970621284 pf=0.9 status=variable model=1 CVRwatts=0.8 CVRvars=3.0 class=1 daily=333 conn=wye
New Load.carga_idseta_2298 phases=3 bus1=x_2298.1.2.3.0 kv=0.38 kw=0.7402183313162474 pf=0.9 status=variable model=1 CVRwatts=0.8 CVRvars=3.0 class=1 daily=333 conn=wye
New Load.carga_idseta_1289 phases=3 bus1=x_1289.1.2.3.0 kv=0.38 kw=55.54095445154372 pf=0.9 status=variable model=1 CVRwatts=0.8 CVRvars=3.0 class=1 daily=333 conn=wye
New Load.carga_idseta_2923 phases=3 bus1=x_2923.1.2.3.0 kv=0.38 kw=16.903777770367704 pf=0.9 status=variable model=1 CVRwatts=0.8 CVRvars=3.0 class=1 daily=332 conn=wye
New Load.carga_idseta_2958 phases=3 bus1=x_2958.1.2.3.0 kv=0.38 kw=8.80936190413992 pf=0.9 status=variable model=1 CVRwatts=0.8 CVRvars=3.0 class=1 daily=332 conn=wye
New Load.carga_idseta_2981 phases=3 bus1=x_2981.1.2.3.0 kv=0.38 kw=0.8316570663611956 pf=0.9 status=variable model=1 CVRwatts=0.8 CVRvars=3.0 class=1 daily=333 conn=wye
New Load.carga_idseta_67 phases=3 bus1=x_67.1.2.3.0 kv=0.38 kw=9.022695409432872 pf=0.9 status=variable model=1 CVRwatts=0.8 CVRvars=3.0 class=1 daily=333 conn=wye
New Load.carga_idseta_5 phases=3 bus1=x_5.1.2.3.0 kv=0.38 kw=23.22030071535241 pf=0.9 status=variable model=1 CVRwatts=0.8 CVRvars=3.0 class=1 daily=333 conn=wye
New Load.carga_idseta_2991 phases=3 bus1=x_2991.1.2.3.0 kv=0.38 kw=1.317153207195087 pf=0.9 status=variable model=1 CVRwatts=0.8 CVRvars=3.0 class=1 daily=333 conn=wye
New Load.carga_idseta_2933 phases=3 bus1=x_2933.1.2.3.0 kv=0.38 kw=138.47162198508735 pf=0.9 status=variable model=1 CVRwatts=0.8 CVRvars=3.0 class=1 daily=335 conn=wye
New Load.carga_idseta_66 phases=3 bus1=x_66.1.2.3.0 kv=0.38 kw=133.26779359810496 pf=0.9 status=variable model=1 CVRwatts=0.8 CVRvars=3.0 class=1 daily=335 conn=wye
New Load.carga_idseta_45 phases=3 bus1=x_45.1.2.3.0 kv=0.38 kw=12.49248284950921 pf=0.9 status=variable model=1 CVRwatts=0.8 CVRvars=3.0 class=1 daily=335 conn=wye
New Load.carga_idseta_43 phases=3 bus1=x_43.1.2.3.0 kv=0.38 kw=12.759721310465745 pf=0.9 status=variable model=1 CVRwatts=0.8 CVRvars=3.0 class=1 daily=335 conn=wye
New Load.carga_idseta_3005 phases=3 bus1=x_3005.1.2.3.0 kv=0.38 kw=0.3929328090401835 pf=0.9 status=variable model=1 CVRwatts=0.8 CVRvars=3.0 class=1 daily=332 conn=wye
New Load.carga_idseta_278 phases=3 bus1=x_278.1.2.3.0 kv=0.38 kw=18.38178015598178 pf=0.9 status=variable model=1 CVRwatts=0.8 CVRvars=3.0 class=1 daily=332 conn=wye
New Load.carga_idseta_3003 phases=3 bus1=x_3003.1.2.3.0 kv=0.38 kw=6.149815930760151 pf=0.9 status=variable model=1 CVRwatts=0.8 CVRvars=3.0 class=1 daily=335 conn=wye
New Load.carga_idseta_20 phases=3 bus1=x_20.1.2.3.0 kv=0.38 kw=44.86402943339128 pf=0.9 status=variable model=1 CVRwatts=0.8 CVRvars=3.0 class=1 daily=335 conn=wye
New Load.carga_idseta_2953 phases=3 bus1=x_2953.1.2.3.0 kv=0.38 kw=0.5930497352734042 pf=0.9 status=variable model=1 CVRwatts=0.8 CVRvars=3.0 class=1 daily=335 conn=wye
New Load.carga_idseta_25 phases=3 bus1=x_25.1.2.3.0 kv=0.38 kw=5.407002833326039 pf=0.9 status=variable model=1 CVRwatts=0.8 CVRvars=3.0 class=1 daily=335 conn=wye
New Load.carga_idseta_72 phases=3 bus1=x_72.1.2.3.0 kv=0.38 kw=94.79264754723418 pf=0.9 status=variable model=1 CVRwatts=0.8 CVRvars=3.0 class=1 daily=334 conn=wye
New Load.carga_idseta_71 phases=3 bus1=x_71.1.2.3.0 kv=0.38 kw=150.07829767446893 pf=0.9 status=variable model=1 CVRwatts=0.8 CVRvars=3.0 class=1 daily=334 conn=wye
New Load.carga_idseta_2897 phases=3 bus1=x_2897.1.2.3.0 kv=0.38 kw=0.5464552975305239 pf=0.9 status=variable model=1 CVRwatts=0.8 CVRvars=3.0 class=1 daily=333 conn=wye
New Load.carga_idseta_3004 phases=3 bus1=x_3004.1.2.3.0 kv=0.38 kw=19.84873684297126 pf=0.9 status=variable model=1 CVRwatts=0.8 CVRvars=3.0 class=1 daily=333 conn=wye
New Load.carga_idseta_645 phases=3 bus1=x_645.1.2.3.0 kv=0.38 kw=88.69644383869544 pf=0.9 status=variable model=1 CVRwatts=0.8 CVRvars=3.0 class=1 daily=333 conn=wye
New Load.carga_idseta_3021 phases=3 bus1=x_3021.1.2.3.0 kv=0.38 kw=56.08529919293944 pf=0.9 status=variable model=1 CVRwatts=0.8 CVRvars=3.0 class=1 daily=335 conn=wye
New Load.carga_idseta_207 phases=3 bus1=x_207.1.2.3.0 kv=0.38 kw=117.85399168224905 pf=0.9 status=variable model=1 CVRwatts=0.8 CVRvars=3.0 class=1 daily=335 conn=wye
New Load.carga_idseta_209 phases=3 bus1=x_209.1.2.3.0 kv=0.38 kw=130.68509860899766 pf=0.9 status=variable model=1 CVRwatts=0.8 CVRvars=3.0 class=1 daily=335 conn=wye
New Load.carga_idseta_236 phases=3 bus1=x_236.1.2.3.0 kv=0.38 kw=85.18877220516265 pf=0.9 status=variable model=1 CVRwatts=0.8 CVRvars=3.0 class=1 daily=332 conn=wye
New Load.carga_idseta_2666 phases=3 bus1=x_2666.1.2.3.0 kv=0.38 kw=89.51392739017372 pf=0.9 status=variable model=1 CVRwatts=0.8 CVRvars=3.0 class=1 daily=332 conn=wye
New Load.carga_idseta_439 phases=3 bus1=x_439.1.2.3.0 kv=0.38 kw=9.403552981225076 pf=0.9 status=variable model=1 CVRwatts=0.8 CVRvars=3.0 class=1 daily=332 conn=wye
New Load.carga_idseta_2931 phases=3 bus1=x_2931.1.2.3.0 kv=0.38 kw=20.25041525614409 pf=0.9 status=variable model=1 CVRwatts=0.8 CVRvars=3.0 class=1 daily=332 conn=wye
New Load.carga_idseta_1592 phases=3 bus1=x_1592.1.2.3.0 kv=0.38 kw=1.295382079803433 pf=0.9 status=variable model=1 CVRwatts=0.8 CVRvars=3.0 class=1 daily=333 conn=wye
New Load.carga_idseta_2478 phases=3 bus1=x_2478.1.2.3.0 kv=0.38 kw=55.503312172283565 pf=0.9 status=variable model=1 CVRwatts=0.8 CVRvars=3.0 class=1 daily=333 conn=wye
New Load.carga_idseta_37 phases=3 bus1=x_37.1.2.3.0 kv=0.38 kw=4.591559447325108 pf=0.9 status=variable model=1 CVRwatts=0.8 CVRvars=3.0 class=1 daily=335 conn=wye
New Load.carga_idseta_36 phases=3 bus1=x_36.1.2.3.0 kv=0.38 kw=15.422587837860029 pf=0.9 status=variable model=1 CVRwatts=0.8 CVRvars=3.0 class=1 daily=335 conn=wye
New Load.carga_idseta_2941 phases=3 bus1=x_2941.1.2.3.0 kv=0.38 kw=3.686426440866161 pf=0.9 status=variable model=1 CVRwatts=0.8 CVRvars=3.0 class=1 daily=335 conn=wye
New Load.carga_idseta_35 phases=3 bus1=x_35.1.2.3.0 kv=0.38 kw=13.151500215829692 pf=0.9 status=variable model=1 CVRwatts=0.8 CVRvars=3.0 class=1 daily=335 conn=wye
New Load.carga_idseta_34 phases=3 bus1=x_34.1.2.3.0 kv=0.38 kw=53.15993494166999 pf=0.9 status=variable model=1 CVRwatts=0.8 CVRvars=3.0 class=1 daily=335 conn=wye
New Load.carga_idseta_3035 phases=3 bus1=x_3035.1.2.3.0 kv=0.38 kw=21.26211843323746 pf=0.9 status=variable model=1 CVRwatts=0.8 CVRvars=3.0 class=1 daily=333 conn=wye
New Load.carga_idseta_33 phases=3 bus1=x_33.1.2.3.0 kv=0.38 kw=14.65418574258912 pf=0.9 status=variable model=1 CVRwatts=0.8 CVRvars=3.0 class=1 daily=335 conn=wye
New Load.carga_idseta_2935 phases=3 bus1=x_2935.1.2.3.0 kv=0.38 kw=0.6040321377784673 pf=0.9 status=variable model=1 CVRwatts=0.8 CVRvars=3.0 class=1 daily=335 conn=wye
New Load.carga_idseta_49 phases=3 bus1=x_49.1.2.3.0 kv=0.38 kw=151.05388139766615 pf=0.9 status=variable model=1 CVRwatts=0.8 CVRvars=3.0 class=1 daily=334 conn=wye
New Load.carga_idseta_48 phases=3 bus1=x_48.1.2.3.0 kv=0.38 kw=106.36639866195306 pf=0.9 status=variable model=1 CVRwatts=0.8 CVRvars=3.0 class=1 daily=335 conn=wye
New Load.carga_idseta_98 phases=3 bus1=x_98.1.2.3.0 kv=0.38 kw=50.31078856378565 pf=0.9 status=variable model=1 CVRwatts=0.8 CVRvars=3.0 class=1 daily=335 conn=wye
New Load.carga_idseta_38 phases=3 bus1=x_38.1.2.3.0 kv=0.38 kw=16.82321023733907 pf=0.9 status=variable model=1 CVRwatts=0.8 CVRvars=3.0 class=1 daily=335 conn=wye
New Load.carga_idseta_24 phases=3 bus1=x_24.1.2.3.0 kv=0.38 kw=73.44379172837529 pf=0.9 status=variable model=1 CVRwatts=0.8 CVRvars=3.0 class=1 daily=335 conn=wye
New Load.carga_idseta_3000 phases=3 bus1=x_3000.1.2.3.0 kv=0.38 kw=11.560809036996362 pf=0.9 status=variable model=1 CVRwatts=0.8 CVRvars=3.0 class=1 daily=335 conn=wye
New Load.carga_idseta_23 phases=3 bus1=x_23.1.2.3.0 kv=0.38 kw=70.80208462980742 pf=0.9 status=variable model=1 CVRwatts=0.8 CVRvars=3.0 class=1 daily=335 conn=wye
New Load.carga_idseta_3018 phases=3 bus1=x_3018.1.2.3.0 kv=0.38 kw=3.518029602455194 pf=0.9 status=variable model=1 CVRwatts=0.8 CVRvars=3.0 class=1 daily=335 conn=wye
New Load.carga_idseta_22 phases=3 bus1=x_22.1.2.3.0 kv=0.38 kw=15.314960293310412 pf=0.9 status=variable model=1 CVRwatts=0.8 CVRvars=3.0 class=1 daily=335 conn=wye
New Load.carga_idseta_3015 phases=3 bus1=x_3015.1.2.3.0 kv=0.38 kw=6.644353515563141 pf=0.9 status=variable model=1 CVRwatts=0.8 CVRvars=3.0 class=1 daily=335 conn=wye
New Load.carga_idseta_237 phases=3 bus1=x_237.1.2.3.0 kv=0.38 kw=44.93633024988295 pf=0.9 status=variable model=1 CVRwatts=0.8 CVRvars=3.0 class=1 daily=335 conn=wye
New Load.carga_idseta_3024 phases=3 bus1=x_3024.1.2.3.0 kv=0.38 kw=7.669722585744691 pf=0.9 status=variable model=1 CVRwatts=0.8 CVRvars=3.0 class=1 daily=332 conn=wye
New Load.carga_idseta_637 phases=3 bus1=x_637.1.2.3.0 kv=0.38 kw=8.976118754805753 pf=0.9 status=variable model=1 CVRwatts=0.8 CVRvars=3.0 class=1 daily=332 conn=wye
New Load.carga_idseta_781 phases=3 bus1=x_781.1.2.3.0 kv=0.38 kw=11.584809257750582 pf=0.9 status=variable model=1 CVRwatts=0.8 CVRvars=3.0 class=1 daily=332 conn=wye
New Load.carga_idseta_3023 phases=3 bus1=x_3023.1.2.3.0 kv=0.38 kw=0.20317501345492417 pf=0.9 status=variable model=1 CVRwatts=0.8 CVRvars=3.0 class=1 daily=332 conn=wye
...
